%mem=30GB
%nproc=8
#P LC-wHPBE/TZVP iop(3/107=0197300000, 3/108=0197300000) scf=(conver=6,fermi,ndamp=35,noincfock,novaracc,vshift=500,xqc)

H32 C26 N4

2 1
C -2.823961 0.444264 1.111805
C -3.524911 0.000100 0.000001
C -1.447297 0.438089 1.110761
C -2.823968 -0.444049 -1.111840
C -0.740218 0.000107 -0.000031
C -1.447325 -0.437860 -1.110830
H -0.914462 0.797765 1.980986
H -3.355363 -0.783593 -1.991035
H -0.914491 -0.797490 -1.981076
C 0.740229 0.000109 -0.000016
C 1.447379 0.437502 -1.110991
C 1.447259 -0.437322 1.111037
C 2.824033 0.443666 -1.111944
C 2.823909 -0.443539 1.112143
C 3.524910 0.000034 0.000126
H 0.914614 0.796709 -1.981454
H 0.914365 -0.796519 1.981427
H 3.355477 0.782802 -1.991269
H 3.355249 -0.782652 1.991539
H -3.355316 0.783824 1.991014
C 4.975135 0.000032 0.000145
C 6.146520 -0.565054 0.408043
C 6.146453 0.565050 -0.408017
N 6.780980 -1.491697 1.066857
N 6.780843 1.491604 -1.067037
C 6.057956 -2.591048 1.684578
H 6.154708 -2.545100 2.768364
H 5.008879 -2.544629 1.410837
H 6.464629 -3.537319 1.332266
C 8.228734 -1.518275 1.186143
H 8.494477 -1.775383 2.209103
H 8.659441 -2.259109 0.513350
H 8.642938 -0.539771 0.968827
C 6.057730 2.591089 -1.684422
H 6.153192 2.544651 -2.768303
H 5.008941 2.545387 -1.409434
H 6.465326 3.537274 -1.332961
C 8.228631 1.518112 -1.186291
H 8.494234 1.779605 -2.208151
H 8.659838 2.255827 -0.510389
H 8.642467 0.538433 -0.973542
C -4.975109 0.000078 0.000026
C -6.146534 0.565080 0.407916
C -6.146403 -0.565147 -0.407945
N -6.781069 1.491701 1.066705
N -6.780732 -1.491927 -1.066700
C -6.058202 2.591312 1.684129
H -6.154554 2.545406 2.767953
H -5.009205 2.545245 1.410016
H -6.465319 3.537423 1.331906
C -8.228858 1.518145 1.185797
H -8.494704 1.776946 2.208295
H -8.659724 2.257735 0.511728
H -8.642813 0.539154 0.970202
C -6.057561 -2.591370 -1.684106
H -6.153074 -2.544964 -2.767982
H -5.008776 -2.545628 -1.409122
H -6.465122 -3.537559 -1.332610
C -8.228499 -1.518584 -1.185941
H -8.494145 -1.779106 -2.208049
H -8.659520 -2.257040 -0.510729
H -8.642516 -0.539209 -0.972160



