%mem=30GB
%nproc=8
#P LC-wHPBE/TZVP iop(3/107=0198000000, 3/108=0198000000) scf=(conver=6,fermi,ndamp=35,noincfock,novaracc,vshift=500,xqc)

H15 C18 N1

0 1
N 0.000022 -0.000126 -0.001279
C 0.411521 -1.356839 -0.000484
C 1.495533 -1.769287 0.781179
C -0.260320 -2.302689 -0.781717
C 1.901218 -3.097977 0.771590
C 0.140608 -3.632811 -0.770872
C 1.225282 -4.038950 0.000666
H 2.020108 -1.039002 1.394849
H -1.101816 -1.987296 -1.396157
H 2.748094 -3.402056 1.385878
H -0.394485 -4.356690 -1.384611
H 1.541424 -5.080840 0.001027
C 0.969124 1.034710 -0.000488
C 2.123037 0.926935 -0.783450
C 0.785335 2.178692 0.782922
C 3.074444 1.939229 -0.772694
C 1.733248 3.194302 0.773528
C 2.885092 3.080453 0.000886
H 2.269922 0.041314 -1.399284
H -0.108570 2.266902 1.398014
H 3.967862 1.838651 -1.388087
H 1.574087 4.078874 1.389358
H 3.629424 3.875076 0.001646
C -1.380731 0.321945 -0.000436
C -2.279686 -0.409002 0.782988
C -1.864017 1.375244 -0.783483
C -3.633185 -0.095800 0.773256
C -3.216365 1.693293 -0.772877
C -4.110212 0.958658 0.000466
H -1.909274 -1.227214 1.398174
H -1.170181 1.945112 -1.399095
H -4.319851 -0.675761 1.389003
H -3.575887 2.517271 -1.388348
H -5.170565 1.205911 0.000686



