%mem=30GB
%nproc=8
#P LC-wHPBE/TZVP iop(3/107=0156200000, 3/108=0156200000) scf=(conver=6,fermi,ndamp=35,noincfock,novaracc,vshift=500,xqc)

H28 C36 N2 O4

1 2
C 2.858499 1.142103 -0.374244
C 3.579312 -0.001087 0.003359
C 1.469111 1.138314 -0.362939
C 2.858875 -1.143435 0.384264
C 0.739097 0.000512 0.009817
C 1.469477 -1.138129 0.379362
H 0.937192 2.033473 -0.688815
H 3.397761 -2.037798 0.696269
H 0.938071 -2.032504 0.708142
C -0.742883 0.001384 0.012974
C -1.474511 -1.130858 -0.372988
C -1.471490 1.134716 0.402503
C -2.864100 -1.134318 -0.378218
C -2.860735 1.140009 0.413286
C -3.582937 0.003346 0.018716
H -0.944110 -2.021230 -0.714069
H -0.938347 2.023708 0.742945
H -3.404263 -2.023625 -0.702274
H -3.398798 2.029064 0.741639
H 3.397024 2.035914 -0.688457
N -4.995311 0.005703 0.022721
C -5.713915 1.185510 -0.315496
C -6.824749 1.586223 0.439679
C -5.336499 1.964565 -1.414395
C -7.543368 2.726588 0.103607
C -6.037549 3.122582 -1.739703
C -7.148838 3.505710 -0.986012
H -7.129554 0.987536 1.298124
H -4.477812 1.664402 -2.014832
H -8.408278 3.036049 0.689802
H -5.724570 3.720924 -2.598980
C -5.717056 -1.178925 0.336296
C -6.821807 -1.565845 -0.429047
C -5.346761 -1.975943 1.428789
C -7.543924 -2.712298 -0.107280
C -6.047800 -3.134194 1.738027
C -7.155651 -3.506391 0.973222
H -7.124426 -0.956025 -1.280239
H -4.491517 -1.682511 2.037555
H -8.407549 -2.995534 -0.714075
H -5.757368 -3.754511 2.585554
N 4.991423 -0.001999 0.000060
C 5.710552 -1.183762 -0.330631
C 6.812654 -1.584277 0.431608
C 5.340603 -1.964026 -1.435102
C 7.532572 -2.727778 0.095183
C 6.039551 -3.119564 -1.759528
C 7.144632 -3.505373 -0.997606
H 7.113605 -0.987752 1.292811
H 4.486562 -1.660323 -2.040543
H 8.393358 -3.022713 0.700462
H 5.749024 -3.727528 -2.615933
C 5.713955 1.178690 0.326778
C 6.814458 1.575861 -0.439552
C 5.349314 1.961286 1.431414
C 7.537888 2.718318 -0.107058
C 6.051756 3.115796 1.751909
C 7.155153 3.498257 0.985865
H 7.111509 0.977436 -1.300789
H 4.496830 1.660119 2.040298
H 8.397429 3.010471 -0.715458
H 5.765438 3.725350 2.608604
O 7.820509 4.641023 1.355507
H 8.555246 4.788670 0.739309
O 7.806379 -4.648952 -1.371018
H 8.541702 -4.800061 -0.756350
O -7.887404 4.628973 -1.265636
H -7.503413 5.071476 -2.038990
O -7.819547 -4.653451 1.332021
H -8.560354 -4.790553 0.720672



