%mem=30GB
%nproc=8
#P LC-wHPBE/TZVP iop(3/107=0181400000, 3/108=0181400000) scf=(conver=6,fermi,ndamp=35,noincfock,novaracc,vshift=500,xqc)

H28 C36 N2

1 2
C 2.849999 -1.125861 0.415638
C 3.563139 -0.000026 -0.000017
C 1.464492 -1.123667 0.405534
C 2.850033 1.125752 -0.415809
C 0.741288 -0.000047 -0.000195
C 1.464504 1.123547 -0.405879
H 0.931596 -2.005844 0.756198
H 3.391048 2.006254 -0.754990
H 0.931669 2.005728 -0.756629
C -0.741437 -0.000073 -0.000217
C -1.464635 1.123165 0.406556
C -1.464638 -1.123302 -0.406976
C -2.850149 1.125343 0.416610
C -2.850163 -1.125491 -0.416935
C -3.563257 -0.000095 -0.000116
H -0.931751 2.005025 0.758038
H -0.931783 -2.005140 -0.758553
H -3.391193 2.005527 0.756576
H -3.391211 -2.005669 -0.756913
H 3.391005 -2.006357 0.754845
N -4.978430 -0.000102 -0.000065
C -5.687099 -1.154578 0.414287
C -6.831881 -1.566674 -0.271150
C -5.251323 -1.896933 1.513908
C -7.528311 -2.692826 0.143324
C -5.943392 -3.032223 1.910440
C -7.087522 -3.435368 1.232277
H -7.173684 -0.995181 -1.131117
H -4.363437 -1.577947 2.055099
H -8.419174 -2.999763 -0.401550
H -5.589860 -3.599797 2.769285
H -7.631852 -4.321852 1.550225
C -5.687025 1.154532 -0.414292
C -6.831191 1.567225 0.271802
C -5.251707 1.896381 -1.514415
C -7.527485 2.693516 -0.142525
C -5.943620 3.031828 -1.910808
C -7.087137 3.435581 -1.231989
H -7.172616 0.996083 1.132151
H -4.364291 1.576910 -2.056093
H -8.417875 3.000945 0.402845
H -5.590451 3.599029 -2.770050
H -7.631350 4.322181 -1.549815
N 4.978266 0.000020 0.000103
C 5.686990 1.154558 0.414335
C 6.831289 1.566980 -0.271699
C 5.251761 1.896543 1.514410
C 7.527834 2.693112 0.142653
C 5.943923 3.031822 1.910819
C 7.087590 3.435293 1.232069
H 7.172649 0.995729 -1.132000
H 4.364233 1.577285 2.056034
H 8.418333 3.000297 -0.402674
H 5.590850 3.599137 2.770027
H 7.631979 4.321768 1.549941
C 5.687017 -1.154516 -0.414141
C 6.831068 -1.567191 0.272109
C 5.251977 -1.896199 -1.514492
C 7.527566 -2.693348 -0.142281
C 5.944079 -3.031486 -1.910953
C 7.087509 -3.435246 -1.231958
H 7.172277 -0.996155 1.132614
H 4.364636 -1.576682 -2.056275
H 8.417864 -3.000787 0.403227
H 5.591165 -3.598572 -2.770374
H 7.631874 -4.321730 -1.549857



