%mem=30GB
%nproc=8
#P LC-wHPBE/TZVP iop(3/107=0245200000, 3/108=0245200000) opt

H15 C18 N1

0 1
N -1.386703 -0.229943 -1.681184
C -1.776681 0.936731 -0.865137
C -1.190425 1.227792 0.309728
C -2.718234 1.878381 -1.402473
C -1.533988 2.299812 1.083945
C -3.121292 2.959200 -0.638997
C -2.411895 3.223259 0.556044
H -0.375991 0.521143 0.734209
H -3.190977 1.622073 -2.364009
H -1.019440 2.550189 2.039498
H -3.811982 3.642891 -1.075734
H -2.720340 4.107237 1.108031
C -0.563283 -1.184553 -0.869494
C -1.104036 -1.865549 0.263354
C 0.771764 -1.429312 -1.301089
C -0.350562 -2.706112 0.988351
C 1.579884 -2.327729 -0.519175
C 1.032913 -2.959017 0.567496
H -2.118727 -1.678193 0.550940
H 1.169336 -0.928743 -2.085392
H -0.772129 -3.236703 1.776243
H 2.521245 -2.485490 -0.828605
H 1.627083 -3.690792 1.211211
C -0.949808 0.047642 -3.058398
C -0.646904 1.310549 -3.479466
C -0.694608 -1.048487 -4.006081
C -0.127694 1.559857 -4.693602
C -0.215036 -0.743110 -5.226465
C 0.043980 0.583635 -5.601457
H -0.801751 2.134217 -2.747724
H -0.919744 -2.076993 -3.670174
H 0.059719 2.595821 -5.050593
H -0.094878 -1.534943 -5.991076
H 0.432064 0.719078 -6.659866



