%mem=30GB
%nproc=8
#P LC-wHPBE/TZVP iop(3/107=0368600000, 3/108=0368600000) opt

H19 C24 S2 N1

0 1
C 0.455965 0.560920 -3.707840
C 0.150420 0.452952 -2.395524
S 0.148008 -0.791253 -1.715614
C -0.167562 1.594953 -1.534884
C -0.404732 0.162310 0.399448
C -0.101206 -0.972451 -0.313008
C 0.381750 1.820107 -4.370392
C -0.166662 2.890648 -2.274475
H -0.862000 2.342104 0.402716
C -0.641674 0.060317 1.847958
C -0.094053 -2.205893 0.325231
C -0.352455 -2.385646 1.661912
C -0.629620 -1.174370 2.442808
H -0.900221 0.968259 2.360574
H 0.187266 -3.125272 -0.264792
H -0.365261 -3.356133 2.135412
C 0.108642 2.938508 -3.595730
H 0.661822 -0.328796 -4.380102
H 0.408606 -1.758891 -2.297840
H 0.683350 1.927755 -5.395959
H -0.432145 3.748878 -1.635306
H 0.128401 3.980517 -4.017443
S -0.577217 1.439912 -0.261163
N -0.899016 -1.283307 3.827278
C 0.097311 -2.168618 4.522092
C -0.321807 -3.334818 5.264856
C 1.383143 -1.778776 4.628860
C 0.550886 -4.098345 5.929304
C 2.390902 -2.576700 5.259812
C 1.946905 -3.703596 5.897327
H -1.393787 -3.653404 5.161670
H 1.699101 -0.865233 4.084794
H 0.236937 -4.991440 6.375188
H 3.417567 -2.230311 5.290604
H 2.680744 -4.354804 6.428454
C -2.304879 -1.795597 4.119501
C -2.807570 -1.626839 5.422657
C -3.062389 -2.317924 3.118869
C -4.157524 -2.013752 5.728907
C -4.389758 -2.727701 3.435050
C -4.986050 -2.526760 4.700710
H -2.198707 -1.123559 6.182912
H -2.696924 -2.448725 2.074724
H -4.567691 -1.840118 6.649278
H -5.034492 -3.142190 2.662720
H -5.927994 -2.881598 4.927890



