%mem=30GB
%nproc=8
#P LC-wHPBE/TZVP iop(3/107=0168400000, 3/108=0168400000) scf=(conver=6,fermi,ndamp=35,noincfock,novaracc,vshift=500,xqc)

H28 C36 S2 N2 O4

0 1
C -1.748928 -0.489907 0.452051
C -0.626174 -1.279763 0.152570
S 1.952753 -5.388628 0.812439
C -0.882312 -2.170069 -0.820725
C 1.932708 -2.897266 -0.476539
C 2.566514 -3.761438 0.418550
C -2.975354 -0.631957 -0.195801
C -2.049066 -2.386893 -1.545961
H 0.246316 -4.468801 -0.586079
C 2.384401 -1.613824 -0.700024
C 3.673888 -3.269502 1.095477
C 4.135912 -1.984797 0.893895
C 3.494497 -1.125461 -0.002977
H 1.857267 -0.971131 -1.395345
H 4.176334 -3.912174 1.811785
H 4.992977 -1.632150 1.456718
C -3.122467 -1.590215 -1.210611
H -1.688273 0.276733 1.226088
H 2.539000 -6.051116 -0.206249
H -2.132551 -3.120151 -2.347153
H -4.068236 -1.688167 -1.734116
S 0.491419 -3.391365 -1.378930
N 3.940024 0.175839 -0.195205
C 5.265040 0.539150 0.184549
C 5.479402 1.520085 1.147894
C 6.360048 -0.068673 -0.412912
C 6.761446 1.889048 1.505778
C 7.649207 0.280692 -0.044528
C 7.852726 1.265560 0.913210
H 4.624132 2.002234 1.612555
H 6.198832 -0.830082 -1.170918
H 6.936355 2.656092 2.253454
H 8.499101 -0.206598 -0.518215
C 3.067884 1.217797 -0.624973
C 3.533169 2.175669 -1.516644
C 1.768428 1.324352 -0.133595
C 2.723890 3.230889 -1.904642
C 0.952027 2.363639 -0.537000
C 1.429133 3.326131 -1.415171
H 4.545758 2.102962 -1.902377
H 1.364259 0.566763 0.534909
H 3.106488 3.978127 -2.597301
H -0.063643 2.437107 -0.162477
N -4.071583 0.199288 0.137893
C -5.379657 -0.330758 0.192504
C -6.464072 0.381862 -0.308117
C -5.615898 -1.583782 0.758482
C -7.748035 -0.135409 -0.237366
C -6.890741 -2.113870 0.808775
C -7.966332 -1.388715 0.314728
H -6.301182 1.359246 -0.752201
H -4.779992 -2.148147 1.160920
H -8.582756 0.442294 -0.630527
H -7.071352 -3.090185 1.247847
C -3.863071 1.579858 0.373004
C -4.488297 2.228332 1.435995
C -3.028002 2.320518 -0.455690
C -4.288516 3.577498 1.662294
C -2.802155 3.666597 -0.218956
C -3.435225 4.300687 0.840523
H -5.141183 1.661753 2.093518
H -2.533592 1.828985 -1.288374
H -4.774148 4.081779 2.492022
H -2.125658 4.220184 -0.867724
O 0.584592 4.343911 -1.769173
H 1.030590 4.920168 -2.399784
O 9.095256 1.661445 1.308356
H 9.763222 1.159512 0.827959
O -9.209724 -1.953542 0.400297
H -9.859516 -1.347058 0.028653
O -3.254007 5.627948 1.116747
H -2.609433 5.991357 0.499352



