%mem=30GB
%nproc=8
#P LC-wHPBE/TZVP iop(3/107=0170800000, 3/108=0170800000) scf=(conver=6,fermi,ndamp=35,noincfock,novaracc,vshift=500,xqc)

H19 C24 S2 N1

0 1
C -3.352046 1.022081 0.901490
C -4.015603 0.124147 0.077833
S -3.193622 -0.833868 -1.176213
C -5.398593 -0.028228 0.207342
C -0.749106 0.373785 -1.531691
C -1.475477 -0.566990 -0.815552
C -4.041516 1.761821 1.844012
C -6.080951 0.720801 1.156415
H -7.475944 -0.835079 -0.458792
C 0.601771 0.547170 -1.299188
C -0.823428 -1.336346 0.139234
C 0.521569 -1.154920 0.389409
C 1.255724 -0.212476 -0.331046
H 1.160253 1.275483 -1.876291
H -1.383265 -2.076857 0.700814
H 1.015474 -1.752114 1.147605
C -5.411167 1.613701 1.970885
H -2.279577 1.141824 0.800598
H -1.248138 0.967582 -2.290346
H -3.503227 2.458074 2.478369
H -7.154267 0.598627 1.263844
H -5.962434 2.189124 2.706912
S -6.238224 -1.192989 -0.835805
N 2.627173 -0.037586 -0.087724
C 3.438312 -1.140752 0.276409
C 4.374889 -1.012928 1.295896
C 3.317625 -2.356550 -0.387733
C 5.179400 -2.084309 1.640010
C 4.112866 -3.428755 -0.025756
C 5.049979 -3.298472 0.986151
H 4.470709 -0.064848 1.814448
H 2.593785 -2.456724 -1.189607
H 5.907450 -1.970366 2.436839
H 4.006805 -4.372570 -0.551042
H 5.677330 -4.139106 1.262850
C 3.224517 1.239724 -0.221989
C 4.446224 1.376745 -0.871250
C 2.604731 2.367846 0.304633
C 5.037460 2.622109 -0.986244
C 3.193018 3.612223 0.169883
C 4.413292 3.746533 -0.472133
H 4.931907 0.498005 -1.282066
H 1.656156 2.262505 0.820378
H 5.992055 2.714270 -1.494403
H 2.697309 4.484427 0.584059
H 4.876004 4.722810 -0.569917



