%mem=30GB
%nproc=8
#P LC-wHPBE/TZVP iop(3/107=0237800000, 3/108=0237800000) scf=(conver=6,fermi,ndamp=35,noincfock,novaracc,vshift=500,xqc)

H10 C12

1 2
C -2.858500 1.132993 0.413690
C -3.561927 -0.000084 -0.000146
C -1.463685 1.132747 0.413534
C -2.858269 -1.133176 -0.413741
C -0.742381 0.000123 0.000091
C -1.463491 -1.132675 -0.413489
H -4.653174 -0.000160 -0.000261
H -0.922222 2.014213 0.762301
H -3.398792 -2.020986 -0.747134
H -0.921754 -2.014027 -0.762095
C 0.742385 0.000142 0.000197
C 1.463539 -1.132637 0.413582
C 1.463636 1.132765 -0.413477
C 2.858357 -1.133114 0.413660
C 2.858412 1.133073 -0.413706
C 3.561931 -0.000095 -0.000087
H 0.921935 -2.014039 0.762261
H 0.922017 2.014128 -0.762265
H 3.398826 -2.021000 0.746938
H 3.399026 2.020805 -0.747168
H 4.653184 -0.000117 -0.000198
H -3.399078 2.020813 0.746974



