%mem=30GB
%nproc=8
#P LC-wHPBE/TZVP iop(3/107=0069400000, 3/108=0069400000) opt

H21 C19 N2

1 1
C -2.326990 0.379052 -2.598978
C -3.492201 0.398327 -1.849359
C -1.039703 0.406031 -1.873760
C -3.445649 0.413283 -0.514740
C -1.110445 0.429267 -0.532811
C -2.280174 0.361387 0.230582
H -4.402244 0.361484 -2.435086
H -0.104580 0.418060 -2.405845
H -4.480353 0.389348 0.054270
H -2.328904 0.397696 1.256646
C 0.283191 0.434277 0.232957
C 0.305859 0.415294 1.617014
C 1.479289 0.431297 -0.471795
C 1.512290 0.447193 2.349083
C 2.719033 0.434836 0.277350
C 2.737351 0.416350 1.614827
H -0.624219 0.442688 2.226782
H 1.446636 0.419211 -1.550346
H 1.450587 0.390994 3.440332
H 3.671233 0.378611 -0.307731
H -2.276506 0.405090 -3.653422
C 3.756938 0.306693 2.328684
C 5.136700 0.704938 2.920640
C 4.658479 -0.740153 2.872807
N 6.117864 1.635623 3.268235
N 4.876160 -2.178032 3.267079
C 6.589823 2.529864 2.242131
H 7.618072 2.672307 2.211645
H 6.343568 2.068646 1.227019
H 6.127165 3.509605 2.203851
C 5.848642 2.437399 4.522137
H 6.740019 2.601415 5.151007
H 5.422721 3.477457 4.197670
H 5.057429 2.020328 5.128919
C 5.857111 -2.836410 2.444053
H 5.494780 -3.766574 1.973947
H 6.211377 -2.224307 1.614951
H 6.737472 -3.178790 3.002878
C 5.056635 -2.495635 4.692494
H 4.715701 -3.488973 4.838668
H 6.060244 -2.342230 4.958796
H 4.469407 -1.781910 5.322032



