%mem=30GB
%nproc=8
#P LC-wHPBE/TZVP iop(3/107=0337100000, 3/108=0337100000) opt

H28 C36 S2 N2 O4

0 1
C 0.475923 0.674668 -3.737127
C 0.196797 0.452436 -2.324813
S 0.233049 -0.753099 -1.676474
C -0.175768 1.675237 -1.499678
C -0.411340 0.228629 0.470043
C -0.041448 -0.909975 -0.325914
C 0.434343 1.928820 -4.269928
C -0.129581 2.894181 -2.184063
H -0.939051 2.428717 0.489325
C -0.659958 0.070500 1.854537
C -0.087731 -2.168098 0.288679
C -0.392814 -2.265305 1.655975
C -0.691248 -1.138633 2.425144
H -0.896590 0.959504 2.465028
H 0.158531 -3.018095 -0.220008
H -0.378256 -3.226119 2.151433
C 0.148997 3.021999 -3.488627
H 0.663098 -0.190152 -4.303110
H 0.441502 -1.639736 -2.229154
H -0.367029 3.782642 -1.620546
H 0.151920 4.007118 -3.982948
S -0.581203 1.558646 -0.134076
N -0.908436 -1.230869 3.911349
C 0.034255 -2.043380 4.587723
C -0.314684 -3.298544 5.282750
C 1.386828 -1.683855 4.640663
C 0.602810 -4.034218 5.900217
C 2.336714 -2.547798 5.307092
C 1.943576 -3.613834 5.980131
H -1.357053 -3.581368 5.282055
H 1.749221 -0.789980 4.090179
H 0.318380 -4.944739 6.457255
H 3.436715 -2.201318 5.321621
C -2.264629 -1.641033 4.179324
C -2.830166 -1.490927 5.489262
C -3.079338 -2.232830 3.207826
C -4.116661 -1.881162 5.720279
C -4.436313 -2.681116 3.459089
C -4.918717 -2.439662 4.707674
H -2.273595 -1.077610 6.225200
H -2.713819 -2.356670 2.214493
H -4.582822 -1.774008 6.758685
H -4.980260 -3.092015 2.654969
N 0.706934 1.972212 -5.660083
C 1.525494 3.160677 -6.013854
C 1.041495 4.091656 -7.017144
C 2.738788 3.522895 -5.366465
C 1.724358 5.258360 -7.375499
C 3.426563 4.626161 -5.715632
C 2.967042 5.536963 -6.684494
H 0.030355 3.897586 -7.511652
H 3.088322 2.831797 -4.639156
H 1.278868 5.949852 -8.111464
H 4.361390 4.880060 -5.313445
C -0.337862 1.696256 -6.588487
C -0.134941 1.373887 -7.919156
C -1.688390 1.815135 -6.101965
C -1.208654 1.202281 -8.778261
C -2.738616 1.596714 -6.982381
C -2.524401 1.300352 -8.391539
H 0.888045 1.395185 -8.314758
H -1.893807 2.046185 -5.070593
H -0.982444 0.976985 -9.878418
H -3.819705 1.657042 -6.686595
O -6.325008 -2.910233 5.046580
H -6.792388 -2.119242 5.134373
O 2.908400 -4.504105 6.656216
H 3.571535 -3.894687 7.155792
O 3.627831 6.731799 -7.108842
H 3.125170 7.544520 -6.825856
O -3.631494 1.045200 -9.259028
H -3.969546 1.908480 -9.595918



