%mem=30GB
%nproc=8
#P LC-wHPBE/TZVP iop(3/107=0186500000, 3/108=0186500000) scf=(conver=6,fermi,ndamp=35,noincfock,novaracc,vshift=500,xqc)

H19 C24 N1 O2

0 1
C -6.538108 -0.217341 1.255514
C -7.258661 0.087287 0.107878
C -5.151390 -0.259049 1.219222
C -6.580697 0.348691 -1.075777
C -4.458004 0.000662 0.035726
C -5.193998 0.304569 -1.110911
H -8.345644 0.121015 0.135956
H -4.593910 -0.476283 2.128350
H -7.136138 0.581164 -1.982188
H -4.671509 0.488761 -2.047704
C -2.974479 -0.044963 -0.002770
C -2.240322 0.918366 -0.694597
C -2.265576 -1.051297 0.654611
C -0.856277 0.875925 -0.739808
C -0.881570 -1.094369 0.628888
C -0.155643 -0.133238 -0.077397
H -2.762026 1.727417 -1.202285
H -2.809037 -1.823891 1.195264
H -0.306381 1.639189 -1.284917
H -0.352632 -1.885069 1.155020
H -7.059465 -0.416189 2.189743
N 1.257026 -0.160831 -0.103806
C 1.965402 -1.377887 -0.174570
C 3.190004 -1.508547 0.478017
C 1.461496 -2.456008 -0.912094
C 3.903051 -2.696891 0.390217
C 2.178621 -3.638306 -0.974610
C 3.402953 -3.775056 -0.332839
H 3.600761 -0.690157 1.062074
H 0.514840 -2.358097 -1.435231
H 1.782807 -4.471654 -1.551437
H 3.963923 -4.706428 -0.398055
C 1.972861 1.068372 -0.045814
C 2.971482 1.350948 -0.972341
C 1.683086 2.012203 0.939258
C 3.676780 2.543988 -0.910119
C 2.365608 3.214996 0.992156
C 3.371443 3.483300 0.069272
H 3.205268 0.621566 -1.744392
H 0.904271 1.798314 1.667748
H 4.460878 2.747602 -1.639197
H 2.139895 3.954598 1.756001
O 4.022986 4.680331 0.173244
H 4.695287 4.738350 -0.517835
O 5.097214 -2.751708 1.053752
H 5.479651 -3.631493 0.941087



