%mem=30GB
%nproc=8
#P LC-wHPBE/TZVP iop(3/107=0176500000, 3/108=0176500000) scf=(conver=6,fermi,ndamp=35,noincfock,novaracc,vshift=500,xqc)

H19 C24 S2 N1 O2

0 1
C -6.544630 -1.193879 0.127010
C -5.283469 -0.647909 0.131523
S -3.665919 -1.107322 1.042984
C -4.996815 0.486583 -0.537830
C -1.475687 0.036886 0.221747
C -1.772288 -1.094442 0.892846
C -7.517398 -0.549399 -0.618903
C -5.951198 1.159916 -1.262339
H -2.843406 1.345523 -1.332578
C -0.186077 0.430997 -0.028463
C -0.773630 -1.912541 1.366813
C 0.536910 -1.552052 1.124661
C 0.845585 -0.387156 0.425435
H 0.045427 1.339810 -0.567415
H -0.986976 -2.816418 1.923251
H 1.342687 -2.175375 1.484620
C -7.223748 0.615229 -1.306247
H -6.782458 -2.097666 0.673346
H -3.815781 -2.439410 0.928305
H -8.517553 -0.958288 -0.663525
H -5.730059 2.077989 -1.791552
H -7.997253 1.105431 -1.881471
S -3.166075 0.851646 -0.124057
N 2.182887 -0.044483 0.184905
C 3.146505 -1.044921 -0.067172
C 4.392012 -0.989098 0.539344
C 2.878694 -2.090316 -0.930362
C 5.345494 -1.946131 0.285899
C 3.822608 -3.066997 -1.170354
C 5.062274 -2.995295 -0.567641
H 4.612943 -0.174890 1.215121
H 1.913696 -2.145516 -1.414069
H 6.317156 -1.901598 0.755555
H 3.591387 -3.881585 -1.845380
C 2.575405 1.310294 0.123192
C 3.391681 1.763268 -0.894977
C 2.164040 2.211964 1.093710
C 3.796835 3.081396 -0.942072
C 2.544098 3.531176 1.038879
C 3.368807 3.972023 0.020733
H 3.723839 1.071840 -1.656403
H 1.529535 1.868488 1.898614
H 4.442764 3.415230 -1.744528
H 2.220724 4.234697 1.791974
O 3.726245 5.281320 0.019257
H 4.294203 5.466041 -0.728132
O 6.032969 -3.920806 -0.776143
H 5.721078 -4.593785 -1.380389



