%mem=30GB
%nproc=8
#P LC-wHPBE/TZVP iop(3/107=0339000000, 3/108=0339000000) opt

H18 C9 N3

1 1
C 1.647202 -0.069501 0.535858
C 2.383341 0.085070 1.831005
N 1.705865 -0.069484 -0.913303
N 3.705998 0.378107 2.598247
C 1.172078 -1.279867 -1.583690
H 1.715420 -1.622147 -2.411513
H 1.109982 -2.075762 -0.803146
H 0.157660 -1.091049 -1.978969
C 1.105498 1.135727 -1.566686
H 1.757445 1.455633 -2.402967
H 0.119397 1.034790 -1.885997
H 1.136746 2.036366 -0.859210
C 4.685811 -0.749023 2.496586
H 4.963819 -0.975541 3.480372
H 4.275572 -1.632977 2.034733
H 5.536630 -0.414373 2.001835
C 4.288881 1.685108 2.240413
H 4.859506 1.995175 3.115874
H 4.970693 1.629787 1.376918
H 3.528079 2.489604 2.099187
C 1.024136 -0.152042 1.881811
N -0.190091 -0.537169 2.637149
C -0.116475 -1.881369 3.264431
H -1.067240 -2.231290 3.578152
H 0.297920 -2.639253 2.573669
H 0.546439 -1.919293 4.108076
C -0.608476 0.383439 3.609851
H -1.654858 0.655947 3.444157
H -0.502385 0.015295 4.644023
H 0.003918 1.319752 3.515635



