%mem=30GB
%nproc=8
#P LC-wHPBE/TZVP iop(3/107=0185200000, 3/108=0185200000) opt

H28 C36 N2 O4

0 1
C -0.048365 -0.361803 -1.393366
C -1.144019 0.457741 -0.848775
C 1.058163 -0.439526 -0.676873
C -0.991236 1.196734 0.311631
C 1.276145 0.231390 0.548471
C 0.255658 1.095965 1.010423
H 1.942811 -1.031833 -0.982509
H -1.844863 1.784495 0.660660
H 0.372952 1.629129 1.914924
C 2.617824 0.174475 1.344093
C 2.727544 0.887772 2.479476
C 3.585296 -0.638081 0.846269
C 3.964014 0.776043 3.188819
C 4.852309 -0.748510 1.587724
C 5.005879 0.020725 2.802161
H 1.947937 1.523933 2.946301
H 3.546805 -1.150302 -0.044133
H 4.094945 1.331430 4.121241
H 5.623029 -1.360170 1.148556
H -0.201125 -0.978297 -2.304295
N 6.132833 -0.011749 3.602652
C 7.395203 -0.091967 2.837995
C 8.273377 -1.207048 3.035594
C 7.678605 0.781771 1.819539
C 9.446187 -1.309296 2.334656
C 8.913411 0.745915 1.060548
C 9.810744 -0.381597 1.327658
H 8.102022 -1.885294 3.836860
H 7.031996 1.587834 1.549949
H 10.191047 -2.069334 2.518796
H 9.109243 1.460409 0.344963
C 6.121830 -0.959328 4.679514
C 6.977093 -0.765861 5.828007
C 5.198401 -1.958912 4.793743
C 6.970073 -1.614146 6.925031
C 5.135256 -2.844874 5.872994
C 6.058607 -2.710082 6.879561
H 7.675579 0.121972 5.775260
H 4.556632 -2.148954 3.942772
H 7.633902 -1.417217 7.718645
H 4.431938 -3.709781 5.844579
N -2.367128 0.822310 -1.570507
C -2.473168 2.288768 -1.906880
C -3.561353 3.001166 -1.421222
C -1.475612 2.897378 -2.667563
C -3.573798 4.429606 -1.719604
C -1.584944 4.269438 -3.025414
C -2.590648 4.998299 -2.547227
H -4.330898 2.537855 -0.821905
H -0.680562 2.247389 -3.093595
H -4.434123 4.980188 -1.381124
H -0.749201 4.719171 -3.626508
C -3.599059 0.267202 -0.990661
C -4.845503 0.308178 -1.697913
C -3.669779 -0.139965 0.294911
C -6.043197 -0.198897 -1.143789
C -4.773546 -0.618692 0.946052
C -5.990158 -0.670183 0.140041
H -4.811083 0.602576 -2.716562
H -2.736036 -0.153787 0.873618
H -6.933236 -0.192978 -1.682690
H -4.836156 -0.978927 1.923225
O -7.205198 -1.071566 0.772817
H -7.767274 -0.412353 1.035990
O -2.664427 6.398259 -2.837608
H -2.500388 6.860602 -2.006477
O 11.016860 -0.475677 0.567165
H 11.319466 0.399417 0.401434
O 6.025214 -3.605378 8.071729
H 5.974798 -3.046463 8.876317



