%mem=30GB
%nproc=8
#P LC-wHPBE/TZVP iop(3/107=0224100000, 3/108=0224100000) scf=(conver=6,fermi,ndamp=35,noincfock,novaracc,vshift=500,xqc)

H28 C36 S2 N2

1 2
C -2.604951 0.985352 -0.477595
C -1.595468 1.227646 -1.396897
S -0.459746 2.557842 -1.073663
C -1.509976 0.467226 -2.564163
C 1.043777 0.455726 -0.021717
C 1.038330 1.682104 -0.668307
C -3.557585 -0.001751 -0.697168
C -2.447111 -0.539154 -2.764444
H -0.596318 -0.142670 -4.605045
C 2.238728 -0.147647 0.319798
C 2.246539 2.297832 -0.961919
C 3.442101 1.694718 -0.621166
C 3.453096 0.462920 0.023837
H 2.234263 -1.106243 0.827797
H 2.253931 3.248348 -1.486346
H 4.381679 2.178238 -0.866461
C -3.461673 -0.764082 -1.856276
H -2.646669 1.585519 0.424718
H 0.106936 -0.032641 0.224382
H -2.404245 -1.146243 -3.663282
H -4.192893 -1.542008 -2.047877
S -0.233558 0.817463 -3.737465
N 4.673686 -0.159547 0.368747
C 5.732508 0.612661 0.896564
C 7.045695 0.377960 0.499452
C 5.475865 1.622329 1.819567
C 8.078745 1.133154 1.024558
C 6.512871 2.384632 2.326214
C 7.820306 2.143178 1.936900
H 7.251646 -0.403669 -0.224060
H 4.454830 1.807304 2.136118
H 9.097402 0.936530 0.704866
H 6.295127 3.169013 3.044416
H 8.632202 2.738403 2.341339
C 4.837054 -1.548147 0.168533
C 5.516065 -2.321618 1.105787
C 4.319017 -2.163542 -0.967486
C 5.679987 -3.679833 0.902534
C 4.472338 -3.525567 -1.154010
C 5.156657 -4.292005 -0.224805
H 5.917204 -1.848815 1.995947
H 3.791670 -1.566068 -1.703651
H 6.213214 -4.268058 1.642948
H 4.061647 -3.989730 -2.045325
H 5.281223 -5.358830 -0.377899
N -4.591369 -0.225236 0.235572
C -4.996809 -1.544618 0.539366
C -6.345932 -1.849462 0.693639
C -4.053605 -2.557013 0.688173
C -6.738551 -3.140118 0.998819
C -4.455920 -3.848924 0.975713
C -5.798707 -4.148587 1.137139
H -7.085839 -1.064984 0.575406
H -2.999778 -2.324624 0.576668
H -7.794748 -3.361033 1.117399
H -3.707423 -4.627077 1.088273
H -6.110711 -5.161215 1.369943
C -5.228462 0.872905 0.859345
C -5.548183 0.824769 2.212595
C -5.541916 2.014931 0.129127
C -6.178047 1.897088 2.818017
C -6.155123 3.090236 0.746513
C -6.481192 3.037227 2.091754
H -5.300925 -0.061617 2.787177
H -5.299559 2.056134 -0.927579
H -6.421719 1.844307 3.874525
H -6.390696 3.975287 0.163884
H -6.967632 3.879890 2.571608



