%mem=30GB
%nproc=8
#P LC-wHPBE/TZVP iop(3/107=0175300000, 3/108=0175300000) scf=(conver=6,fermi,ndamp=35,noincfock,novaracc,vshift=500,xqc)

H21 C19 S2 N2

1 1
C 5.141333 0.341453 -1.428653
C 4.246330 0.793113 -0.457920
S 3.527427 2.438238 -0.612926
C 3.852580 -0.085202 0.570411
C 0.863708 -0.787434 0.770822
C 1.152588 -1.949541 0.292605
C 5.641454 -0.963707 -1.380320
C 4.337968 -1.397272 0.611701
H 2.805747 -0.536686 2.620663
C -0.327590 -0.104924 0.757243
C 0.161049 -2.709273 -0.336618
C -1.110551 -2.125038 -0.416532
C -1.366563 -0.836811 0.116144
H -0.506361 0.876389 1.203135
H 0.333628 -3.701573 -0.760587
H -1.915541 -2.656529 -0.930176
C 5.242141 -1.827604 -0.363151
H 5.450891 1.025420 -2.219360
H 4.159480 2.990100 0.460876
H 6.347910 -1.298886 -2.140548
H 4.022912 -2.077842 1.402557
H 5.625918 -2.847650 -0.323690
S 2.641644 0.489998 1.741439
C -2.680648 -0.257498 0.003764
C -4.054270 -0.413992 -0.132503
C -3.489875 0.870167 -0.052158
N -5.099740 -1.211802 -0.243141
N -3.607387 2.185094 -0.049886
C -4.958870 -2.662960 -0.086881
H -5.249390 -3.175063 -1.015650
H -3.921906 -2.911213 0.159186
H -5.607057 -3.011636 0.730112
C -6.456302 -0.708508 -0.463149
H -6.932296 -1.289768 -1.265044
H -7.062340 -0.804638 0.450448
H -6.424137 0.340187 -0.774131
C -2.422516 3.047015 -0.104701
H -2.374233 3.683098 0.791036
H -1.518165 2.434104 -0.168534
H -2.472812 3.689712 -0.995626
C -4.905946 2.859820 -0.071613
H -4.903422 3.671788 0.668659
H -5.109136 3.288120 -1.064906
H -5.701050 2.156915 0.195603



