%mem=30GB
%nproc=8
#P LC-wHPBE/TZVP iop(3/107=0208900000, 3/108=0208900000) scf=(conver=6,fermi,ndamp=35,noincfock,novaracc,vshift=500,xqc)

H21 C19 N2

2 2
C 5.924302 -1.175178 0.282560
C 6.625626 0.000025 -0.000251
C 4.530324 -1.177472 0.278212
C 5.924206 1.175202 -0.282951
C 3.810936 -0.000036 -0.000021
C 4.530233 1.177435 -0.278371
H 7.716547 0.000056 -0.000331
H 3.994064 -2.094974 0.527939
H 6.466302 2.093210 -0.514746
H 3.993880 2.094904 -0.528010
C 2.333716 -0.000062 0.000109
C 1.604784 1.119278 0.452707
C 1.604752 -1.119433 -0.452341
C 0.216850 1.125770 0.449243
C 0.216813 -1.125977 -0.448670
C -0.504919 -0.000106 0.000309
H 2.141671 1.985727 0.840835
H 2.141597 -1.985891 -0.840507
H -0.315693 1.995203 0.838189
H -0.315745 -1.995465 -0.837475
H 6.466484 -2.093156 0.514265
C -1.942874 -0.000086 0.000402
C -3.143323 -0.702637 -0.003392
C -3.143127 0.702801 0.003915
N -3.787080 -1.855019 0.001668
N -3.786774 1.855252 -0.001097
C -3.068411 -3.122520 0.167733
H -3.187886 -3.748580 -0.728596
H -2.005788 -2.927607 0.341041
H -3.471162 -3.663551 1.036238
C -5.245121 -1.944160 -0.100275
H -5.509149 -2.713998 -0.838669
H -5.688951 -2.217262 0.869111
H -5.659251 -0.989594 -0.439085
C -3.068047 3.122616 -0.168130
H -3.188116 3.749602 0.727455
H -2.005304 2.927538 -0.340531
H -3.470192 3.662707 -1.037509
C -5.244950 1.944232 0.099391
H -5.509538 2.718440 0.832954
H -5.688631 2.211256 -0.871774
H -5.658779 0.991638 0.444142



