%mem=30GB
%nproc=8
#P LC-wHPBE/TZVP iop(3/107=0476200000, 3/108=0476200000) opt

H19 C24 S2 N1 O2

0 1
C 0.419993 0.582620 -3.707449
C 0.185621 0.425060 -2.403641
S 0.151575 -0.836254 -1.767896
C -0.169858 1.560126 -1.577283
C -0.423927 0.250913 0.416117
C -0.091934 -0.930643 -0.394551
C 0.376263 1.814909 -4.317211
C -0.199970 2.864554 -2.216253
H -0.946293 2.343297 0.436857
C -0.686588 0.091545 1.786450
C -0.034580 -2.258346 0.299868
C -0.374195 -2.319460 1.664954
C -0.625256 -1.225154 2.387964
H -0.903615 0.986115 2.391315
H 0.198915 -3.118574 -0.305723
H -0.388171 -3.329093 2.109358
C 0.080117 2.949342 -3.558284
H 0.668175 -0.271427 -4.300858
H 0.424958 -1.687230 -2.357179
H 0.675049 1.935880 -5.374571
H -0.333426 3.751390 -1.646504
H 0.062195 3.975113 -4.055899
S -0.538011 1.420204 -0.217891
N -0.952454 -1.297901 3.803379
C 0.098296 -2.175173 4.529037
C -0.377407 -3.305466 5.198774
C 1.434951 -1.798294 4.547408
C 0.596146 -4.056186 5.891727
C 2.374719 -2.540671 5.306091
C 1.917639 -3.774586 5.953075
H -1.360186 -3.644113 5.239454
H 1.749189 -0.872229 4.130759
H 0.257922 -4.996692 6.461738
H 3.344062 -2.264178 5.319448
C -2.269983 -1.785125 4.132251
C -2.791394 -1.597765 5.403769
C -3.071786 -2.279721 3.116474
C -4.148338 -1.988138 5.736772
C -4.371065 -2.710065 3.386221
C -4.903636 -2.569429 4.663984
H -2.265054 -1.166573 6.230564
H -2.664815 -2.447464 2.115155
H -4.536119 -1.908345 6.678987
H -5.068409 -3.161517 2.632704
O -6.331431 -2.925891 4.959590
H -6.861260 -2.130923 5.115710
O 2.929471 -4.503623 6.629533
H 3.472893 -3.949334 7.087574



