%mem=30GB
%nproc=8
#P LC-wHPBE/TZVP iop(3/107=0236300000, 3/108=0236300000) scf=(conver=6,fermi,ndamp=35,noincfock,novaracc,vshift=500,xqc)

H10 C12 S2

0 1
C -2.574063 -1.434391 -0.049117
C -1.368901 -0.745264 -0.216328
S 0.093606 -1.678504 -0.585022
C -1.397687 0.626896 -0.046009
C 1.500395 0.811934 0.077279
C 1.478004 0.220423 1.307027
C -3.746915 -0.783096 0.229547
C -2.584351 1.293751 0.256604
H -0.039943 1.860892 -1.547006
C 2.473105 0.786527 -0.925649
C 2.645316 -0.559969 1.492438
C 3.655495 -0.649979 0.563531
C 3.583956 0.035098 -0.656753
H 2.357645 1.302286 -1.874829
H 2.763398 -1.119309 2.419207
H 4.527775 -1.262476 0.773175
H 4.391412 -0.038194 -1.378729
C -3.759914 0.597536 0.384558
H -2.557315 -2.514169 -0.138510
H -0.525974 -2.528359 -1.431800
H -4.665467 -1.345208 0.349638
H -2.558102 2.368477 0.406674
H -4.681894 1.115025 0.619767
S 0.004008 1.738768 -0.208750



