%mem=30GB
%nproc=8
#P LC-wHPBE/TZVP iop(3/107=0343100000, 3/108=0343100000) opt

H21 C21 N1 O3

0 1
N -1.432771 -0.291475 -2.791132
C -1.708366 0.949840 -1.987572
C -1.116194 1.156950 -0.743548
C -2.687664 1.834937 -2.436934
C -1.452973 2.278619 -0.021995
C -3.021338 2.930561 -1.720202
C -2.402965 3.233915 -0.558599
H -0.384009 0.459869 -0.420414
H -3.236952 1.647170 -3.460488
H -1.024260 2.532886 0.916868
H -3.822975 3.629259 -2.099586
C -0.560488 -1.152856 -2.030721
C -1.097295 -1.906149 -0.877472
C 0.748393 -1.408436 -2.363939
C -0.294954 -2.691113 -0.131179
C 1.578440 -2.334008 -1.575297
C 0.988538 -2.951676 -0.486442
H -2.111154 -1.628044 -0.598041
H 1.237087 -0.938809 -3.258627
H -0.765953 -3.263120 0.703034
H 2.605739 -2.546424 -1.880970
O 1.803542 -3.927661 0.278344
C 1.632809 -5.280492 0.024817
H 0.608515 -5.602733 0.290240
H 1.889122 -5.606295 -0.945536
H 2.307163 -5.753499 0.718361
O -2.797458 4.342945 0.249427
C -3.338387 4.161203 1.507860
H -4.271125 3.637107 1.472608
H -2.656511 3.682968 2.238631
H -3.496277 5.226055 1.910169
C -0.916417 0.008374 -4.104010
C 0.007293 1.100723 -4.423004
C -1.296103 -0.740527 -5.235656
C 0.441470 1.307911 -5.713516
C -0.846941 -0.476601 -6.534591
C 0.051942 0.513374 -6.782743
H 0.250243 1.750901 -3.564018
H -2.015655 -1.626164 -5.040499
H 1.097535 2.157647 -5.825051
H -1.114810 -1.166162 -7.343765
O 0.521901 0.852513 -8.075300
C 1.721012 0.232827 -8.540582
H 2.560101 0.445920 -7.909553
H 1.603691 -0.925640 -8.555229
H 1.820244 0.553234 -9.563742



